MODEL 1
REMARK VINA RESULT:    -2.014      0.000      0.000
REMARK INTER + INTRA:          -7.767
REMARK INTER:                  -3.898
REMARK INTRA:                  -3.869
REMARK UNBOUND:                -3.869
REMARK  Name = Remdesivir.pdb
REMARK  20 active torsions:
REMARK  status: ('A' for Active; 'I' for Inactive)
REMARK    1  A    between atoms: P_1  and  O_5
REMARK    2  A    between atoms: P_1  and  O_6
REMARK    3  A    between atoms: P_1  and  N_12
REMARK    4  A    between atoms: O_3  and  C_17
REMARK    5  A    between atoms: O_4  and  C_18
REMARK    6  A    between atoms: O_5  and  C_21
REMARK    7  A    between atoms: O_6  and  C_35
REMARK    8  A    between atoms: O_8  and  C_30
REMARK    9  A    between atoms: O_8  and  C_33
REMARK   10  A    between atoms: N_12  and  C_27
REMARK   11  A    between atoms: C_16  and  C_20
REMARK   12  A    between atoms: C_16  and  C_22
REMARK   13  A    between atoms: C_19  and  C_21
REMARK   14  A    between atoms: C_27  and  C_33
REMARK   15  A    between atoms: C_27  and  C_34
REMARK   16  A    between atoms: C_29  and  C_30
REMARK   17  A    between atoms: C_29  and  C_31
REMARK   18  A    between atoms: C_29  and  C_32
REMARK   19  A    between atoms: C_31  and  C_36
REMARK   20  A    between atoms: C_32  and  C_37
REMARK                            x       y       z     vdW  Elec       q    Type
REMARK                         _______ _______ _______ _____ _____    ______ ____
ROOT
ATOM      1  C   UNL     1      10.853   5.140  22.910  0.00  0.00    +0.206 C 
ENDROOT
BRANCH   1   6
ATOM      2  O   UNL     1      11.270   4.743  20.578  0.00  0.00    -0.343 OA
ATOM      3  C   UNL     1      12.094   5.714  19.884  0.00  0.00    +0.225 C 
ATOM      4  C   UNL     1      13.069   6.226  20.964  0.00  0.00    +0.198 C 
ATOM      5  C   UNL     1      13.193   5.056  21.921  0.00  0.00    +0.178 C 
ATOM      6  C   UNL     1      11.786   4.484  21.900  0.00  0.00    +0.178 C 
BRANCH   3  11
ATOM      7  N   UNL     1      11.751   7.879  18.603  0.00  0.00    -0.219 N 
ATOM      8  N   UNL     1      13.058   8.084  18.317  0.00  0.00    -0.107 NA
ATOM      9  N   UNL     1      12.343  10.087  17.183  0.00  0.00    -0.341 NA
ATOM     10  N   UNL     1      10.124  10.795  17.026  0.00  0.00    -0.331 N 
ATOM     11  C   UNL     1      11.222   6.830  19.310  0.00  0.00    +0.093 A 
ATOM     12  C   UNL     1       9.857   7.007  19.371  0.00  0.00    +0.030 A 
ATOM     13  C   UNL     1      10.742   8.720  18.214  0.00  0.00    +0.119 A 
ATOM     14  C   UNL     1       9.551   8.204  18.677  0.00  0.00    +0.034 A 
ATOM     15  C   UNL     1      11.076   9.900  17.453  0.00  0.00    +0.205 C 
ATOM     16  C   UNL     1      13.277   9.169  17.628  0.00  0.00    +0.223 C 
ATOM     17  H   UNL     1       9.137  10.667  17.223  0.00  0.00    +0.145 HD
ATOM     18  H   UNL     1      10.385  11.616  16.491  0.00  0.00    +0.145 HD
ENDBRANCH   3  11
BRANCH   4  19
ATOM     19  O   UNL     1      14.319   6.658  20.463  0.00  0.00    -0.385 OA
ATOM     20  H   UNL     1      14.401   6.322  19.553  0.00  0.00    +0.210 HD
ENDBRANCH   4  19
BRANCH   5  21
ATOM     21  O   UNL     1      14.102   4.091  21.395  0.00  0.00    -0.386 OA
ATOM     22  H   UNL     1      13.924   3.248  21.847  0.00  0.00    +0.210 HD
ENDBRANCH   5  21
BRANCH   3  24
ATOM     23  N   UNL     1      13.322   4.448  17.922  0.00  0.00    -0.193 NA
ATOM     24  C   UNL     1      12.782   5.005  18.785  0.00  0.00    +0.107 C 
ENDBRANCH   3  24
ENDBRANCH   1   6
BRANCH   1  25
ATOM     25  O   UNL     1       9.614   5.419  22.281  0.00  0.00    -0.284 OA
BRANCH  25  26
ATOM     26  P   UNL     1       8.501   6.343  23.030  0.00  0.00    +0.462 P 
ATOM     27  O   UNL     1       7.434   6.774  22.056  0.00  0.00    -0.228 OA
BRANCH  26  28
ATOM     28  N   UNL     1       8.003   5.519  24.379  0.00  0.00    -0.199 NA
ATOM     29  H   UNL     1       7.052   5.155  24.395  0.00  0.00    +0.135 HD
BRANCH  28  30
ATOM     30  C   UNL     1       8.373   6.046  25.691  0.00  0.00    +0.171 C 
ATOM     31  C   UNL     1       7.136   6.143  26.573  0.00  0.00    +0.036 C 
BRANCH  30  33
ATOM     32  O   UNL     1       9.199   3.938  26.599  0.00  0.00    -0.249 OA
ATOM     33  C   UNL     1       9.397   5.109  26.306  0.00  0.00    +0.325 C 
BRANCH  33  34
ATOM     34  O   UNL     1      10.583   5.776  26.478  0.00  0.00    -0.463 OA
BRANCH  34  35
ATOM     35  C   UNL     1      11.741   4.962  26.601  0.00  0.00    +0.235 C 
BRANCH  35  36
ATOM     36  C   UNL     1      12.971   5.701  26.048  0.00  0.00    +0.026 C 
BRANCH  36  37
ATOM     37  C   UNL     1      14.120   5.786  27.079  0.00  0.00    +0.003 C 
ATOM     38  C   UNL     1      13.682   5.763  28.538  0.00  0.00    +0.004 C 
ENDBRANCH  36  37
BRANCH  36  39
ATOM     39  C   UNL     1      12.536   7.065  25.478  0.00  0.00    +0.003 C 
ATOM     40  C   UNL     1      13.642   8.110  25.469  0.00  0.00    +0.004 C 
ENDBRANCH  36  39
ENDBRANCH  35  36
ENDBRANCH  34  35
ENDBRANCH  33  34
ENDBRANCH  30  33
ENDBRANCH  28  30
ENDBRANCH  26  28
BRANCH  26  41
ATOM     41  O   UNL     1       9.417   7.586  23.528  0.00  0.00    -0.413 OA
BRANCH  41  42
ATOM     42  C   UNL     1       9.803   8.648  22.756  0.00  0.00    +0.131 A 
ATOM     43  C   UNL     1       8.855   9.571  22.314  0.00  0.00    +0.046 A 
ATOM     44  C   UNL     1      11.145   8.807  22.410  0.00  0.00    +0.046 A 
ATOM     45  C   UNL     1       9.249  10.653  21.527  0.00  0.00    +0.004 A 
ATOM     46  C   UNL     1      11.538   9.889  21.622  0.00  0.00    +0.004 A 
ATOM     47  C   UNL     1      10.591  10.813  21.181  0.00  0.00    +0.000 A 
ENDBRANCH  41  42
ENDBRANCH  26  41
ENDBRANCH  25  26
ENDBRANCH   1  25
TORSDOF 17
ENDMDL
MODEL 2
REMARK VINA RESULT:    -1.997      2.957      7.246
REMARK INTER + INTRA:          -7.734
REMARK INTER:                  -3.819
REMARK INTRA:                  -3.916
REMARK UNBOUND:                -3.869
REMARK  Name = Remdesivir.pdb
REMARK  20 active torsions:
REMARK  status: ('A' for Active; 'I' for Inactive)
REMARK    1  A    between atoms: P_1  and  O_5
REMARK    2  A    between atoms: P_1  and  O_6
REMARK    3  A    between atoms: P_1  and  N_12
REMARK    4  A    between atoms: O_3  and  C_17
REMARK    5  A    between atoms: O_4  and  C_18
REMARK    6  A    between atoms: O_5  and  C_21
REMARK    7  A    between atoms: O_6  and  C_35
REMARK    8  A    between atoms: O_8  and  C_30
REMARK    9  A    between atoms: O_8  and  C_33
REMARK   10  A    between atoms: N_12  and  C_27
REMARK   11  A    between atoms: C_16  and  C_20
REMARK   12  A    between atoms: C_16  and  C_22
REMARK   13  A    between atoms: C_19  and  C_21
REMARK   14  A    between atoms: C_27  and  C_33
REMARK   15  A    between atoms: C_27  and  C_34
REMARK   16  A    between atoms: C_29  and  C_30
REMARK   17  A    between atoms: C_29  and  C_31
REMARK   18  A    between atoms: C_29  and  C_32
REMARK   19  A    between atoms: C_31  and  C_36
REMARK   20  A    between atoms: C_32  and  C_37
REMARK                            x       y       z     vdW  Elec       q    Type
REMARK                         _______ _______ _______ _____ _____    ______ ____
ROOT
ATOM      1  C   UNL     1      12.636   4.223  20.755  0.00  0.00    +0.206 C 
ENDROOT
BRANCH   1   6
ATOM      2  O   UNL     1      13.328   6.000  22.214  0.00  0.00    -0.343 OA
ATOM      3  C   UNL     1      12.349   6.484  23.170  0.00  0.00    +0.225 C 
ATOM      4  C   UNL     1      11.496   5.242  23.501  0.00  0.00    +0.198 C 
ATOM      5  C   UNL     1      12.449   4.082  23.286  0.00  0.00    +0.178 C 
ATOM      6  C   UNL     1      13.266   4.563  22.099  0.00  0.00    +0.178 C 
BRANCH   3  11
ATOM      7  N   UNL     1      10.556   8.277  23.259  0.00  0.00    -0.219 N 
ATOM      8  N   UNL     1      10.196   8.055  24.546  0.00  0.00    -0.107 NA
ATOM      9  N   UNL     1       8.592   9.830  24.248  0.00  0.00    -0.341 NA
ATOM     10  N   UNL     1       8.305  11.032  22.267  0.00  0.00    -0.331 N 
ATOM     11  C   UNL     1      11.524   7.611  22.553  0.00  0.00    +0.093 A 
ATOM     12  C   UNL     1      11.568   8.149  21.285  0.00  0.00    +0.030 A 
ATOM     13  C   UNL     1       9.983   9.230  22.458  0.00  0.00    +0.119 A 
ATOM     14  C   UNL     1      10.592   9.175  21.223  0.00  0.00    +0.034 A 
ATOM     15  C   UNL     1       8.931  10.055  23.003  0.00  0.00    +0.205 C 
ATOM     16  C   UNL     1       9.241   8.838  24.962  0.00  0.00    +0.223 C 
ATOM     17  H   UNL     1       8.554  11.222  21.302  0.00  0.00    +0.145 HD
ATOM     18  H   UNL     1       7.568  11.599  22.674  0.00  0.00    +0.145 HD
ENDBRANCH   3  11
BRANCH   4  19
ATOM     19  O   UNL     1      10.930   5.252  24.797  0.00  0.00    -0.385 OA
ATOM     20  H   UNL     1      11.637   5.491  25.422  0.00  0.00    +0.210 HD
ENDBRANCH   4  19
BRANCH   5  21
ATOM     21  O   UNL     1      13.304   3.938  24.418  0.00  0.00    -0.386 OA
ATOM     22  H   UNL     1      14.056   4.540  24.293  0.00  0.00    +0.210 HD
ENDBRANCH   5  21
BRANCH   3  24
ATOM     23  N   UNL     1      13.674   7.394  25.262  0.00  0.00    -0.193 NA
ATOM     24  C   UNL     1      13.092   6.994  24.342  0.00  0.00    +0.107 C 
ENDBRANCH   3  24
ENDBRANCH   1   6
BRANCH   1  25
ATOM     25  O   UNL     1      13.658   4.111  19.780  0.00  0.00    -0.284 OA
BRANCH  25  26
ATOM     26  P   UNL     1      13.551   4.932  18.377  0.00  0.00    +0.462 P 
ATOM     27  O   UNL     1      13.341   3.981  17.226  0.00  0.00    -0.228 OA
BRANCH  26  28
ATOM     28  N   UNL     1      12.418   6.122  18.588  0.00  0.00    -0.199 NA
ATOM     29  H   UNL     1      12.067   6.288  19.530  0.00  0.00    +0.135 HD
BRANCH  28  30
ATOM     30  C   UNL     1      11.337   6.235  17.611  0.00  0.00    +0.171 C 
ATOM     31  C   UNL     1       9.992   6.148  18.319  0.00  0.00    +0.036 C 
BRANCH  30  33
ATOM     32  O   UNL     1      11.129   7.797  15.749  0.00  0.00    -0.249 OA
ATOM     33  C   UNL     1      11.482   7.567  16.898  0.00  0.00    +0.325 C 
BRANCH  33  34
ATOM     34  O   UNL     1      12.066   8.478  17.741  0.00  0.00    -0.463 OA
BRANCH  34  35
ATOM     35  C   UNL     1      11.500   9.781  17.736  0.00  0.00    +0.235 C 
BRANCH  35  36
ATOM     36  C   UNL     1      12.519  10.801  17.202  0.00  0.00    +0.026 C 
BRANCH  36  37
ATOM     37  C   UNL     1      12.799  11.938  18.212  0.00  0.00    +0.003 C 
ATOM     38  C   UNL     1      13.068  11.482  19.641  0.00  0.00    +0.004 C 
ENDBRANCH  36  37
BRANCH  36  39
ATOM     39  C   UNL     1      12.072  11.293  15.812  0.00  0.00    +0.003 C 
ATOM     40  C   UNL     1      10.788  12.110  15.832  0.00  0.00    +0.004 C 
ENDBRANCH  36  39
ENDBRANCH  35  36
ENDBRANCH  34  35
ENDBRANCH  33  34
ENDBRANCH  30  33
ENDBRANCH  28  30
ENDBRANCH  26  28
BRANCH  26  41
ATOM     41  O   UNL     1      15.006   5.647  18.325  0.00  0.00    -0.413 OA
BRANCH  41  42
ATOM     42  C   UNL     1      15.245   6.936  17.931  0.00  0.00    +0.131 A 
ATOM     43  C   UNL     1      15.533   7.914  18.883  0.00  0.00    +0.046 A 
ATOM     44  C   UNL     1      15.199   7.271  16.578  0.00  0.00    +0.046 A 
ATOM     45  C   UNL     1      15.776   9.228  18.481  0.00  0.00    +0.004 A 
ATOM     46  C   UNL     1      15.442   8.585  16.177  0.00  0.00    +0.004 A 
ATOM     47  C   UNL     1      15.731   9.563  17.128  0.00  0.00    +0.000 A 
ENDBRANCH  41  42
ENDBRANCH  26  41
ENDBRANCH  25  26
ENDBRANCH   1  25
TORSDOF 17
ENDMDL
MODEL 3
REMARK VINA RESULT:    -1.962      2.538      4.684
REMARK INTER + INTRA:          -7.666
REMARK INTER:                  -4.107
REMARK INTRA:                  -3.559
REMARK UNBOUND:                -3.869
REMARK  Name = Remdesivir.pdb
REMARK  20 active torsions:
REMARK  status: ('A' for Active; 'I' for Inactive)
REMARK    1  A    between atoms: P_1  and  O_5
REMARK    2  A    between atoms: P_1  and  O_6
REMARK    3  A    between atoms: P_1  and  N_12
REMARK    4  A    between atoms: O_3  and  C_17
REMARK    5  A    between atoms: O_4  and  C_18
REMARK    6  A    between atoms: O_5  and  C_21
REMARK    7  A    between atoms: O_6  and  C_35
REMARK    8  A    between atoms: O_8  and  C_30
REMARK    9  A    between atoms: O_8  and  C_33
REMARK   10  A    between atoms: N_12  and  C_27
REMARK   11  A    between atoms: C_16  and  C_20
REMARK   12  A    between atoms: C_16  and  C_22
REMARK   13  A    between atoms: C_19  and  C_21
REMARK   14  A    between atoms: C_27  and  C_33
REMARK   15  A    between atoms: C_27  and  C_34
REMARK   16  A    between atoms: C_29  and  C_30
REMARK   17  A    between atoms: C_29  and  C_31
REMARK   18  A    between atoms: C_29  and  C_32
REMARK   19  A    between atoms: C_31  and  C_36
REMARK   20  A    between atoms: C_32  and  C_37
REMARK                            x       y       z     vdW  Elec       q    Type
REMARK                         _______ _______ _______ _____ _____    ______ ____
ROOT
ATOM      1  C   UNL     1      11.190   4.999  23.894  0.00  0.00    +0.206 C 
ENDROOT
BRANCH   1   6
ATOM      2  O   UNL     1      11.094   4.528  21.541  0.00  0.00    -0.343 OA
ATOM      3  C   UNL     1      11.728   5.485  20.654  0.00  0.00    +0.225 C 
ATOM      4  C   UNL     1      12.906   6.044  21.478  0.00  0.00    +0.198 C 
ATOM      5  C   UNL     1      13.259   4.909  22.420  0.00  0.00    +0.178 C 
ATOM      6  C   UNL     1      11.892   4.320  22.725  0.00  0.00    +0.178 C 
BRANCH   3  11
ATOM      7  N   UNL     1      11.091   7.642  19.477  0.00  0.00    -0.219 N 
ATOM      8  N   UNL     1      12.322   7.898  18.974  0.00  0.00    -0.107 NA
ATOM      9  N   UNL     1      11.351   9.879  18.003  0.00  0.00    -0.341 NA
ATOM     10  N   UNL     1       9.113  10.503  18.237  0.00  0.00    -0.331 N 
ATOM     11  C   UNL     1      10.731   6.569  20.251  0.00  0.00    +0.093 A 
ATOM     12  C   UNL     1       9.390   6.693  20.546  0.00  0.00    +0.030 A 
ATOM     13  C   UNL     1      10.001   8.446  19.277  0.00  0.00    +0.119 A 
ATOM     14  C   UNL     1       8.926   7.883  19.930  0.00  0.00    +0.034 A 
ATOM     15  C   UNL     1      10.156   9.643  18.484  0.00  0.00    +0.205 C 
ATOM     16  C   UNL     1      12.380   8.995  18.271  0.00  0.00    +0.223 C 
ATOM     17  H   UNL     1       8.180  10.336  18.598  0.00  0.00    +0.145 HD
ATOM     18  H   UNL     1       9.248  11.337  17.675  0.00  0.00    +0.145 HD
ENDBRANCH   3  11
BRANCH   4  19
ATOM     19  O   UNL     1      14.008   6.474  20.702  0.00  0.00    -0.385 OA
ATOM     20  H   UNL     1      14.648   5.742  20.674  0.00  0.00    +0.210 HD
ENDBRANCH   4  19
BRANCH   5  21
ATOM     21  O   UNL     1      14.048   3.938  21.737  0.00  0.00    -0.386 OA
ATOM     22  H   UNL     1      13.661   3.818  20.853  0.00  0.00    +0.210 HD
ENDBRANCH   5  21
BRANCH   3  24
ATOM     23  N   UNL     1      12.521   4.167  18.511  0.00  0.00    -0.193 NA
ATOM     24  C   UNL     1      12.172   4.746  19.453  0.00  0.00    +0.107 C 
ENDBRANCH   3  24
ENDBRANCH   1   6
BRANCH   1  25
ATOM     25  O   UNL     1      12.155   5.359  24.867  0.00  0.00    -0.284 OA
BRANCH  25  26
ATOM     26  P   UNL     1      12.373   6.923  25.270  0.00  0.00    +0.462 P 
ATOM     27  O   UNL     1      13.731   7.398  24.817  0.00  0.00    -0.228 OA
BRANCH  26  28
ATOM     28  N   UNL     1      11.056   7.762  24.716  0.00  0.00    -0.199 NA
ATOM     29  H   UNL     1      10.424   7.291  24.072  0.00  0.00    +0.135 HD
BRANCH  28  30
ATOM     30  C   UNL     1      11.236   9.160  24.329  0.00  0.00    +0.171 C 
ATOM     31  C   UNL     1      11.242   9.277  22.811  0.00  0.00    +0.036 C 
BRANCH  30  33
ATOM     32  O   UNL     1       9.054   9.499  25.367  0.00  0.00    -0.249 OA
ATOM     33  C   UNL     1      10.095   9.965  24.924  0.00  0.00    +0.325 C 
BRANCH  33  34
ATOM     34  O   UNL     1      10.410  11.300  24.892  0.00  0.00    -0.463 OA
BRANCH  34  35
ATOM     35  C   UNL     1      11.500  11.701  25.712  0.00  0.00    +0.235 C 
BRANCH  35  36
ATOM     36  C   UNL     1      12.454  12.611  24.922  0.00  0.00    +0.026 C 
BRANCH  36  37
ATOM     37  C   UNL     1      11.964  12.865  23.478  0.00  0.00    +0.003 C 
ATOM     38  C   UNL     1      11.525  14.294  23.186  0.00  0.00    +0.004 C 
ENDBRANCH  36  37
BRANCH  36  39
ATOM     39  C   UNL     1      13.887  12.049  25.010  0.00  0.00    +0.003 C 
ATOM     40  C   UNL     1      14.020  10.843  25.929  0.00  0.00    +0.004 C 
ENDBRANCH  36  39
ENDBRANCH  35  36
ENDBRANCH  34  35
ENDBRANCH  33  34
ENDBRANCH  30  33
ENDBRANCH  28  30
ENDBRANCH  26  28
BRANCH  26  41
ATOM     41  O   UNL     1      12.258   6.844  26.886  0.00  0.00    -0.413 OA
BRANCH  41  42
ATOM     42  C   UNL     1      12.614   7.838  27.758  0.00  0.00    +0.131 A 
ATOM     43  C   UNL     1      11.690   8.820  28.111  0.00  0.00    +0.046 A 
ATOM     44  C   UNL     1      13.902   7.868  28.292  0.00  0.00    +0.046 A 
ATOM     45  C   UNL     1      12.053   9.833  28.999  0.00  0.00    +0.004 A 
ATOM     46  C   UNL     1      14.265   8.880  29.180  0.00  0.00    +0.004 A 
ATOM     47  C   UNL     1      13.341   9.863  29.534  0.00  0.00    +0.000 A 
ENDBRANCH  41  42
ENDBRANCH  26  41
ENDBRANCH  25  26
ENDBRANCH   1  25
TORSDOF 17
ENDMDL
MODEL 4
REMARK VINA RESULT:    -1.903      2.893      4.998
REMARK INTER + INTRA:          -7.552
REMARK INTER:                  -3.797
REMARK INTRA:                  -3.755
REMARK UNBOUND:                -3.869
REMARK  Name = Remdesivir.pdb
REMARK  20 active torsions:
REMARK  status: ('A' for Active; 'I' for Inactive)
REMARK    1  A    between atoms: P_1  and  O_5
REMARK    2  A    between atoms: P_1  and  O_6
REMARK    3  A    between atoms: P_1  and  N_12
REMARK    4  A    between atoms: O_3  and  C_17
REMARK    5  A    between atoms: O_4  and  C_18
REMARK    6  A    between atoms: O_5  and  C_21
REMARK    7  A    between atoms: O_6  and  C_35
REMARK    8  A    between atoms: O_8  and  C_30
REMARK    9  A    between atoms: O_8  and  C_33
REMARK   10  A    between atoms: N_12  and  C_27
REMARK   11  A    between atoms: C_16  and  C_20
REMARK   12  A    between atoms: C_16  and  C_22
REMARK   13  A    between atoms: C_19  and  C_21
REMARK   14  A    between atoms: C_27  and  C_33
REMARK   15  A    between atoms: C_27  and  C_34
REMARK   16  A    between atoms: C_29  and  C_30
REMARK   17  A    between atoms: C_29  and  C_31
REMARK   18  A    between atoms: C_29  and  C_32
REMARK   19  A    between atoms: C_31  and  C_36
REMARK   20  A    between atoms: C_32  and  C_37
REMARK                            x       y       z     vdW  Elec       q    Type
REMARK                         _______ _______ _______ _____ _____    ______ ____
ROOT
ATOM      1  C   UNL     1      11.446   4.391  24.261  0.00  0.00    +0.206 C 
ENDROOT
BRANCH   1   6
ATOM      2  O   UNL     1      11.137   4.301  21.880  0.00  0.00    -0.343 OA
ATOM      3  C   UNL     1      11.608   5.440  21.114  0.00  0.00    +0.225 C 
ATOM      4  C   UNL     1      12.826   5.955  21.909  0.00  0.00    +0.198 C 
ATOM      5  C   UNL     1      13.351   4.716  22.608  0.00  0.00    +0.178 C 
ATOM      6  C   UNL     1      12.067   3.972  22.933  0.00  0.00    +0.178 C 
BRANCH   3  11
ATOM      7  N   UNL     1       9.218   6.157  20.652  0.00  0.00    -0.219 N 
ATOM      8  N   UNL     1       8.747   4.917  20.379  0.00  0.00    -0.107 NA
ATOM      9  N   UNL     1       6.609   5.968  20.018  0.00  0.00    -0.341 NA
ATOM     10  N   UNL     1       6.212   8.260  20.226  0.00  0.00    -0.331 N 
ATOM     11  C   UNL     1      10.504   6.487  20.995  0.00  0.00    +0.093 A 
ATOM     12  C   UNL     1      10.552   7.852  21.185  0.00  0.00    +0.030 A 
ATOM     13  C   UNL     1       8.449   7.290  20.621  0.00  0.00    +0.119 A 
ATOM     14  C   UNL     1       9.251   8.362  20.949  0.00  0.00    +0.034 A 
ATOM     15  C   UNL     1       7.051   7.173  20.279  0.00  0.00    +0.205 C 
ATOM     16  C   UNL     1       7.479   4.895  20.079  0.00  0.00    +0.223 C 
ATOM     17  H   UNL     1       6.536   9.201  20.427  0.00  0.00    +0.145 HD
ATOM     18  H   UNL     1       5.233   8.151  19.984  0.00  0.00    +0.145 HD
ENDBRANCH   3  11
BRANCH   4  19
ATOM     19  O   UNL     1      13.809   6.595  21.119  0.00  0.00    -0.385 OA
ATOM     20  H   UNL     1      14.669   6.454  21.552  0.00  0.00    +0.210 HD
ENDBRANCH   4  19
BRANCH   5  21
ATOM     21  O   UNL     1      14.128   3.938  21.701  0.00  0.00    -0.386 OA
ATOM     22  H   UNL     1      14.467   4.540  21.018  0.00  0.00    +0.210 HD
ENDBRANCH   5  21
BRANCH   3  24
ATOM     23  N   UNL     1      12.260   4.558  18.715  0.00  0.00    -0.193 NA
ATOM     24  C   UNL     1      11.973   4.945  19.769  0.00  0.00    +0.107 C 
ENDBRANCH   3  24
ENDBRANCH   1   6
BRANCH   1  25
ATOM     25  O   UNL     1      12.441   5.003  25.063  0.00  0.00    -0.284 OA
BRANCH  25  26
ATOM     26  P   UNL     1      12.041   6.183  26.112  0.00  0.00    +0.462 P 
ATOM     27  O   UNL     1      12.427   5.791  27.516  0.00  0.00    -0.228 OA
BRANCH  26  28
ATOM     28  N   UNL     1      12.669   7.599  25.524  0.00  0.00    -0.199 NA
ATOM     29  H   UNL     1      13.084   7.589  24.594  0.00  0.00    +0.135 HD
BRANCH  28  30
ATOM     30  C   UNL     1      13.452   8.440  26.427  0.00  0.00    +0.171 C 
ATOM     31  C   UNL     1      14.918   8.034  26.366  0.00  0.00    +0.036 C 
BRANCH  30  33
ATOM     32  O   UNL     1      13.674  10.862  26.618  0.00  0.00    -0.249 OA
ATOM     33  C   UNL     1      13.278   9.885  25.997  0.00  0.00    +0.325 C 
BRANCH  33  34
ATOM     34  O   UNL     1      12.611   9.930  24.798  0.00  0.00    -0.463 OA
BRANCH  34  35
ATOM     35  C   UNL     1      12.397  11.225  24.255  0.00  0.00    +0.235 C 
BRANCH  35  36
ATOM     36  C   UNL     1      10.902  11.439  23.962  0.00  0.00    +0.026 C 
BRANCH  36  37
ATOM     37  C   UNL     1      10.602  11.502  22.447  0.00  0.00    +0.003 C 
ATOM     38  C   UNL     1      11.820  11.385  21.541  0.00  0.00    +0.004 C 
ENDBRANCH  36  37
BRANCH  36  39
ATOM     39  C   UNL     1      10.396  12.660  24.755  0.00  0.00    +0.003 C 
ATOM     40  C   UNL     1      11.501  13.605  25.201  0.00  0.00    +0.004 C 
ENDBRANCH  36  39
ENDBRANCH  35  36
ENDBRANCH  34  35
ENDBRANCH  33  34
ENDBRANCH  30  33
ENDBRANCH  28  30
ENDBRANCH  26  28
BRANCH  26  41
ATOM     41  O   UNL     1      10.432   6.242  25.911  0.00  0.00    -0.413 OA
BRANCH  41  42
ATOM     42  C   UNL     1       9.688   7.384  25.787  0.00  0.00    +0.131 A 
ATOM     43  C   UNL     1       9.582   8.268  26.861  0.00  0.00    +0.046 A 
ATOM     44  C   UNL     1       9.036   7.665  24.586  0.00  0.00    +0.046 A 
ATOM     45  C   UNL     1       8.824   9.432  26.734  0.00  0.00    +0.004 A 
ATOM     46  C   UNL     1       8.278   8.829  24.460  0.00  0.00    +0.004 A 
ATOM     47  C   UNL     1       8.172   9.713  25.533  0.00  0.00    +0.000 A 
ENDBRANCH  41  42
ENDBRANCH  26  41
ENDBRANCH  25  26
ENDBRANCH   1  25
TORSDOF 17
ENDMDL
MODEL 5
REMARK VINA RESULT:    -1.880      2.813      6.903
REMARK INTER + INTRA:          -7.508
REMARK INTER:                  -3.445
REMARK INTRA:                  -4.063
REMARK UNBOUND:                -3.869
REMARK  Name = Remdesivir.pdb
REMARK  20 active torsions:
REMARK  status: ('A' for Active; 'I' for Inactive)
REMARK    1  A    between atoms: P_1  and  O_5
REMARK    2  A    between atoms: P_1  and  O_6
REMARK    3  A    between atoms: P_1  and  N_12
REMARK    4  A    between atoms: O_3  and  C_17
REMARK    5  A    between atoms: O_4  and  C_18
REMARK    6  A    between atoms: O_5  and  C_21
REMARK    7  A    between atoms: O_6  and  C_35
REMARK    8  A    between atoms: O_8  and  C_30
REMARK    9  A    between atoms: O_8  and  C_33
REMARK   10  A    between atoms: N_12  and  C_27
REMARK   11  A    between atoms: C_16  and  C_20
REMARK   12  A    between atoms: C_16  and  C_22
REMARK   13  A    between atoms: C_19  and  C_21
REMARK   14  A    between atoms: C_27  and  C_33
REMARK   15  A    between atoms: C_27  and  C_34
REMARK   16  A    between atoms: C_29  and  C_30
REMARK   17  A    between atoms: C_29  and  C_31
REMARK   18  A    between atoms: C_29  and  C_32
REMARK   19  A    between atoms: C_31  and  C_36
REMARK   20  A    between atoms: C_32  and  C_37
REMARK                            x       y       z     vdW  Elec       q    Type
REMARK                         _______ _______ _______ _____ _____    ______ ____
ROOT
ATOM      1  C   UNL     1      12.741   4.550  20.619  0.00  0.00    +0.206 C 
ENDROOT
BRANCH   1   6
ATOM      2  O   UNL     1      13.421   6.204  22.223  0.00  0.00    -0.343 OA
ATOM      3  C   UNL     1      12.398   6.707  23.120  0.00  0.00    +0.225 C 
ATOM      4  C   UNL     1      11.442   5.513  23.314  0.00  0.00    +0.198 C 
ATOM      5  C   UNL     1      12.332   4.302  23.116  0.00  0.00    +0.178 C 
ATOM      6  C   UNL     1      13.276   4.782  22.027  0.00  0.00    +0.178 C 
BRANCH   3  11
ATOM      7  N   UNL     1      10.769   8.653  23.182  0.00  0.00    -0.219 N 
ATOM      8  N   UNL     1      10.337   8.436  24.447  0.00  0.00    -0.107 NA
ATOM      9  N   UNL     1       8.911  10.353  24.131  0.00  0.00    -0.341 NA
ATOM     10  N   UNL     1       8.814  11.618  22.170  0.00  0.00    -0.331 N 
ATOM     11  C   UNL     1      11.703   7.917  22.499  0.00  0.00    +0.093 A 
ATOM     12  C   UNL     1      11.847   8.476  21.247  0.00  0.00    +0.030 A 
ATOM     13  C   UNL     1      10.317   9.670  22.383  0.00  0.00    +0.119 A 
ATOM     14  C   UNL     1      10.969   9.586  21.173  0.00  0.00    +0.034 A 
ATOM     15  C   UNL     1       9.320  10.573  22.906  0.00  0.00    +0.205 C 
ATOM     16  C   UNL     1       9.438   9.293  24.845  0.00  0.00    +0.223 C 
ATOM     17  H   UNL     1       9.120  11.806  21.221  0.00  0.00    +0.145 HD
ATOM     18  H   UNL     1       8.115  12.240  22.561  0.00  0.00    +0.145 HD
ENDBRANCH   3  11
BRANCH   4  19
ATOM     19  O   UNL     1      10.770   5.501  24.558  0.00  0.00    -0.385 OA
ATOM     20  H   UNL     1      11.028   6.307  25.038  0.00  0.00    +0.210 HD
ENDBRANCH   4  19
BRANCH   5  21
ATOM     21  O   UNL     1      13.077   4.045  24.305  0.00  0.00    -0.386 OA
ATOM     22  H   UNL     1      13.255   3.090  24.336  0.00  0.00    +0.210 HD
ENDBRANCH   5  21
BRANCH   3  24
ATOM     23  N   UNL     1      13.597   7.424  25.358  0.00  0.00    -0.193 NA
ATOM     24  C   UNL     1      13.070   7.109  24.374  0.00  0.00    +0.107 C 
ENDBRANCH   3  24
ENDBRANCH   1   6
BRANCH   1  25
ATOM     25  O   UNL     1      13.145   5.625  19.788  0.00  0.00    -0.284 OA
BRANCH  25  26
ATOM     26  P   UNL     1      13.858   5.333  18.353  0.00  0.00    +0.462 P 
ATOM     27  O   UNL     1      14.433   3.939  18.327  0.00  0.00    -0.228 OA
BRANCH  26  28
ATOM     28  N   UNL     1      12.764   5.720  17.171  0.00  0.00    -0.199 NA
ATOM     29  H   UNL     1      13.110   6.167  16.325  0.00  0.00    +0.135 HD
BRANCH  28  30
ATOM     30  C   UNL     1      11.485   6.303  17.572  0.00  0.00    +0.171 C 
ATOM     31  C   UNL     1      11.279   7.632  16.858  0.00  0.00    +0.036 C 
BRANCH  30  33
ATOM     32  O   UNL     1      10.330   4.670  16.176  0.00  0.00    -0.249 OA
ATOM     33  C   UNL     1      10.384   5.324  17.209  0.00  0.00    +0.325 C 
BRANCH  33  34
ATOM     34  O   UNL     1       9.457   5.280  18.220  0.00  0.00    -0.463 OA
BRANCH  34  35
ATOM     35  C   UNL     1       8.243   5.978  17.981  0.00  0.00    +0.235 C 
BRANCH  35  36
ATOM     36  C   UNL     1       7.858   6.813  19.213  0.00  0.00    +0.026 C 
BRANCH  36  37
ATOM     37  C   UNL     1       7.769   8.324  18.896  0.00  0.00    +0.003 C 
ATOM     38  C   UNL     1       6.795   8.696  17.787  0.00  0.00    +0.004 C 
ENDBRANCH  36  37
BRANCH  36  39
ATOM     39  C   UNL     1       8.805   6.470  20.380  0.00  0.00    +0.003 C 
ATOM     40  C   UNL     1       8.140   6.520  21.748  0.00  0.00    +0.004 C 
ENDBRANCH  36  39
ENDBRANCH  35  36
ENDBRANCH  34  35
ENDBRANCH  33  34
ENDBRANCH  30  33
ENDBRANCH  28  30
ENDBRANCH  26  28
BRANCH  26  41
ATOM     41  O   UNL     1      15.011   6.474  18.344  0.00  0.00    -0.413 OA
BRANCH  41  42
ATOM     42  C   UNL     1      14.839   7.773  17.950  0.00  0.00    +0.131 A 
ATOM     43  C   UNL     1      14.264   8.696  18.823  0.00  0.00    +0.046 A 
ATOM     44  C   UNL     1      15.240   8.175  16.676  0.00  0.00    +0.046 A 
ATOM     45  C   UNL     1      14.089  10.021  18.423  0.00  0.00    +0.004 A 
ATOM     46  C   UNL     1      15.065   9.500  16.275  0.00  0.00    +0.004 A 
ATOM     47  C   UNL     1      14.490  10.423  17.148  0.00  0.00    +0.000 A 
ENDBRANCH  41  42
ENDBRANCH  26  41
ENDBRANCH  25  26
ENDBRANCH   1  25
TORSDOF 17
ENDMDL
MODEL 6
REMARK VINA RESULT:    -1.825      2.250      3.814
REMARK INTER + INTRA:          -7.402
REMARK INTER:                  -3.199
REMARK INTRA:                  -4.203
REMARK UNBOUND:                -3.869
REMARK  Name = Remdesivir.pdb
REMARK  20 active torsions:
REMARK  status: ('A' for Active; 'I' for Inactive)
REMARK    1  A    between atoms: P_1  and  O_5
REMARK    2  A    between atoms: P_1  and  O_6
REMARK    3  A    between atoms: P_1  and  N_12
REMARK    4  A    between atoms: O_3  and  C_17
REMARK    5  A    between atoms: O_4  and  C_18
REMARK    6  A    between atoms: O_5  and  C_21
REMARK    7  A    between atoms: O_6  and  C_35
REMARK    8  A    between atoms: O_8  and  C_30
REMARK    9  A    between atoms: O_8  and  C_33
REMARK   10  A    between atoms: N_12  and  C_27
REMARK   11  A    between atoms: C_16  and  C_20
REMARK   12  A    between atoms: C_16  and  C_22
REMARK   13  A    between atoms: C_19  and  C_21
REMARK   14  A    between atoms: C_27  and  C_33
REMARK   15  A    between atoms: C_27  and  C_34
REMARK   16  A    between atoms: C_29  and  C_30
REMARK   17  A    between atoms: C_29  and  C_31
REMARK   18  A    between atoms: C_29  and  C_32
REMARK   19  A    between atoms: C_31  and  C_36
REMARK   20  A    between atoms: C_32  and  C_37
REMARK                            x       y       z     vdW  Elec       q    Type
REMARK                         _______ _______ _______ _____ _____    ______ ____
ROOT
ATOM      1  C   UNL     1      10.402   4.030  22.501  0.00  0.00    +0.206 C 
ENDROOT
BRANCH   1   6
ATOM      2  O   UNL     1      10.463   5.772  20.849  0.00  0.00    -0.343 OA
ATOM      3  C   UNL     1      11.582   6.694  20.908  0.00  0.00    +0.225 C 
ATOM      4  C   UNL     1      12.747   5.843  21.456  0.00  0.00    +0.198 C 
ATOM      5  C   UNL     1      12.411   4.436  20.998  0.00  0.00    +0.178 C 
ATOM      6  C   UNL     1      10.897   4.422  21.115  0.00  0.00    +0.178 C 
BRANCH   3  11
ATOM      7  N   UNL     1      10.192   8.714  21.561  0.00  0.00    -0.219 N 
ATOM      8  N   UNL     1       9.331   8.638  20.518  0.00  0.00    -0.107 NA
ATOM      9  N   UNL     1       8.263  10.588  21.449  0.00  0.00    -0.341 NA
ATOM     10  N   UNL     1       8.956  11.670  23.399  0.00  0.00    -0.331 N 
ATOM     11  C   UNL     1      11.244   7.873  21.817  0.00  0.00    +0.093 A 
ATOM     12  C   UNL     1      11.858   8.306  22.973  0.00  0.00    +0.030 A 
ATOM     13  C   UNL     1      10.129   9.675  22.536  0.00  0.00    +0.119 A 
ATOM     14  C   UNL     1      11.153   9.447  23.429  0.00  0.00    +0.034 A 
ATOM     15  C   UNL     1       9.088  10.673  22.462  0.00  0.00    +0.205 C 
ATOM     16  C   UNL     1       8.423   9.574  20.522  0.00  0.00    +0.223 C 
ATOM     17  H   UNL     1       9.584  11.751  24.192  0.00  0.00    +0.145 HD
ATOM     18  H   UNL     1       8.215  12.358  23.324  0.00  0.00    +0.145 HD
ENDBRANCH   3  11
BRANCH   4  19
ATOM     19  O   UNL     1      14.027   6.266  21.030  0.00  0.00    -0.385 OA
ATOM     20  H   UNL     1      14.675   5.623  21.369  0.00  0.00    +0.210 HD
ENDBRANCH   4  19
BRANCH   5  21
ATOM     21  O   UNL     1      12.780   4.268  19.631  0.00  0.00    -0.386 OA
ATOM     22  H   UNL     1      12.856   3.313  19.466  0.00  0.00    +0.210 HD
ENDBRANCH   5  21
BRANCH   3  24
ATOM     23  N   UNL     1      12.020   7.559  18.455  0.00  0.00    -0.193 NA
ATOM     24  C   UNL     1      11.828   7.179  19.533  0.00  0.00    +0.107 C 
ENDBRANCH   3  24
ENDBRANCH   1   6
BRANCH   1  25
ATOM     25  O   UNL     1       9.486   5.010  22.959  0.00  0.00    -0.284 OA
BRANCH  25  26
ATOM     26  P   UNL     1       9.050   5.059  24.528  0.00  0.00    +0.462 P 
ATOM     27  O   UNL     1       7.586   4.733  24.678  0.00  0.00    -0.228 OA
BRANCH  26  28
ATOM     28  N   UNL     1      10.123   4.115  25.367  0.00  0.00    -0.199 NA
ATOM     29  H   UNL     1       9.775   3.260  25.796  0.00  0.00    +0.135 HD
BRANCH  28  30
ATOM     30  C   UNL     1      11.088   4.773  26.246  0.00  0.00    +0.171 C 
ATOM     31  C   UNL     1      11.294   3.938  27.502  0.00  0.00    +0.036 C 
BRANCH  30  33
ATOM     32  O   UNL     1      13.005   4.017  24.940  0.00  0.00    -0.249 OA
ATOM     33  C   UNL     1      12.393   4.925  25.485  0.00  0.00    +0.325 C 
BRANCH  33  34
ATOM     34  O   UNL     1      12.780   6.242  25.497  0.00  0.00    -0.463 OA
BRANCH  34  35
ATOM     35  C   UNL     1      13.789   6.584  26.437  0.00  0.00    +0.235 C 
BRANCH  35  36
ATOM     36  C   UNL     1      13.546   7.999  26.987  0.00  0.00    +0.026 C 
BRANCH  36  37
ATOM     37  C   UNL     1      12.102   8.191  27.503  0.00  0.00    +0.003 C 
ATOM     38  C   UNL     1      11.416   9.471  27.047  0.00  0.00    +0.004 C 
ENDBRANCH  36  37
BRANCH  36  39
ATOM     39  C   UNL     1      13.981   9.038  25.934  0.00  0.00    +0.003 C 
ATOM     40  C   UNL     1      15.221   9.828  26.325  0.00  0.00    +0.004 C 
ENDBRANCH  36  39
ENDBRANCH  35  36
ENDBRANCH  34  35
ENDBRANCH  33  34
ENDBRANCH  30  33
ENDBRANCH  28  30
ENDBRANCH  26  28
BRANCH  26  41
ATOM     41  O   UNL     1       9.375   6.607  24.890  0.00  0.00    -0.413 OA
BRANCH  41  42
ATOM     42  C   UNL     1       8.595   7.422  25.664  0.00  0.00    +0.131 A 
ATOM     43  C   UNL     1       7.880   8.467  25.078  0.00  0.00    +0.046 A 
ATOM     44  C   UNL     1       8.515   7.209  27.040  0.00  0.00    +0.046 A 
ATOM     45  C   UNL     1       7.085   9.298  25.867  0.00  0.00    +0.004 A 
ATOM     46  C   UNL     1       7.720   8.041  27.830  0.00  0.00    +0.004 A 
ATOM     47  C   UNL     1       7.004   9.085  27.244  0.00  0.00    +0.000 A 
ENDBRANCH  41  42
ENDBRANCH  26  41
ENDBRANCH  25  26
ENDBRANCH   1  25
TORSDOF 17
ENDMDL
MODEL 7
REMARK VINA RESULT:    -1.759      2.706      4.841
REMARK INTER + INTRA:          -7.274
REMARK INTER:                  -3.529
REMARK INTRA:                  -3.746
REMARK UNBOUND:                -3.869
REMARK  Name = Remdesivir.pdb
REMARK  20 active torsions:
REMARK  status: ('A' for Active; 'I' for Inactive)
REMARK    1  A    between atoms: P_1  and  O_5
REMARK    2  A    between atoms: P_1  and  O_6
REMARK    3  A    between atoms: P_1  and  N_12
REMARK    4  A    between atoms: O_3  and  C_17
REMARK    5  A    between atoms: O_4  and  C_18
REMARK    6  A    between atoms: O_5  and  C_21
REMARK    7  A    between atoms: O_6  and  C_35
REMARK    8  A    between atoms: O_8  and  C_30
REMARK    9  A    between atoms: O_8  and  C_33
REMARK   10  A    between atoms: N_12  and  C_27
REMARK   11  A    between atoms: C_16  and  C_20
REMARK   12  A    between atoms: C_16  and  C_22
REMARK   13  A    between atoms: C_19  and  C_21
REMARK   14  A    between atoms: C_27  and  C_33
REMARK   15  A    between atoms: C_27  and  C_34
REMARK   16  A    between atoms: C_29  and  C_30
REMARK   17  A    between atoms: C_29  and  C_31
REMARK   18  A    between atoms: C_29  and  C_32
REMARK   19  A    between atoms: C_31  and  C_36
REMARK   20  A    between atoms: C_32  and  C_37
REMARK                            x       y       z     vdW  Elec       q    Type
REMARK                         _______ _______ _______ _____ _____    ______ ____
ROOT
ATOM      1  C   UNL     1      11.509   4.369  24.462  0.00  0.00    +0.206 C 
ENDROOT
BRANCH   1   6
ATOM      2  O   UNL     1      11.109   4.214  22.099  0.00  0.00    -0.343 OA
ATOM      3  C   UNL     1      11.515   5.348  21.289  0.00  0.00    +0.225 C 
ATOM      4  C   UNL     1      12.745   5.919  22.024  0.00  0.00    +0.198 C 
ATOM      5  C   UNL     1      13.336   4.712  22.729  0.00  0.00    +0.178 C 
ATOM      6  C   UNL     1      12.090   3.938  23.121  0.00  0.00    +0.178 C 
BRANCH   3  11
ATOM      7  N   UNL     1      10.556   7.617  20.678  0.00  0.00    -0.219 N 
ATOM      8  N   UNL     1      11.712   8.138  20.203  0.00  0.00    -0.107 NA
ATOM      9  N   UNL     1      10.455  10.146  19.763  0.00  0.00    -0.341 NA
ATOM     10  N   UNL     1       8.180  10.407  20.220  0.00  0.00    -0.331 N 
ATOM     11  C   UNL     1      10.374   6.358  21.190  0.00  0.00    +0.093 A 
ATOM     12  C   UNL     1       9.050   6.239  21.557  0.00  0.00    +0.030 A 
ATOM     13  C   UNL     1       9.368   8.299  20.713  0.00  0.00    +0.119 A 
ATOM     14  C   UNL     1       8.412   7.468  21.255  0.00  0.00    +0.034 A 
ATOM     15  C   UNL     1       9.331   9.655  20.219  0.00  0.00    +0.205 C 
ATOM     16  C   UNL     1      11.596   9.364  19.777  0.00  0.00    +0.223 C 
ATOM     17  H   UNL     1       7.299  10.044  20.567  0.00  0.00    +0.145 HD
ATOM     18  H   UNL     1       8.180  11.358  19.866  0.00  0.00    +0.145 HD
ENDBRANCH   3  11
BRANCH   4  19
ATOM     19  O   UNL     1      13.676   6.570  21.182  0.00  0.00    -0.385 OA
ATOM     20  H   UNL     1      13.960   5.928  20.508  0.00  0.00    +0.210 HD
ENDBRANCH   4  19
BRANCH   5  21
ATOM     21  O   UNL     1      14.102   3.937  21.809  0.00  0.00    -0.386 OA
ATOM     22  H   UNL     1      14.925   4.424  21.635  0.00  0.00    +0.210 HD
ENDBRANCH   5  21
BRANCH   3  24
ATOM     23  N   UNL     1      12.100   4.430  18.886  0.00  0.00    -0.193 NA
ATOM     24  C   UNL     1      11.843   4.834  19.942  0.00  0.00    +0.107 C 
ENDBRANCH   3  24
ENDBRANCH   1   6
BRANCH   1  25
ATOM     25  O   UNL     1      12.564   4.784  25.312  0.00  0.00    -0.284 OA
BRANCH  25  26
ATOM     26  P   UNL     1      12.273   5.806  26.546  0.00  0.00    +0.462 P 
ATOM     27  O   UNL     1      13.122   5.445  27.739  0.00  0.00    -0.228 OA
BRANCH  26  28
ATOM     28  N   UNL     1      12.419   7.347  25.955  0.00  0.00    -0.199 NA
ATOM     29  H   UNL     1      12.465   7.471  24.945  0.00  0.00    +0.135 HD
BRANCH  28  30
ATOM     30  C   UNL     1      13.338   8.265  26.626  0.00  0.00    +0.171 C 
ATOM     31  C   UNL     1      14.750   8.060  26.094  0.00  0.00    +0.036 C 
BRANCH  30  33
ATOM     32  O   UNL     1      13.425  10.699  26.751  0.00  0.00    -0.249 OA
ATOM     33  C   UNL     1      12.867   9.683  26.360  0.00  0.00    +0.325 C 
BRANCH  33  34
ATOM     34  O   UNL     1      11.718   9.652  25.610  0.00  0.00    -0.463 OA
BRANCH  34  35
ATOM     35  C   UNL     1      10.564  10.217  26.216  0.00  0.00    +0.235 C 
BRANCH  35  36
ATOM     36  C   UNL     1       9.715  10.949  25.164  0.00  0.00    +0.026 C 
BRANCH  36  37
ATOM     37  C   UNL     1       8.598  11.806  25.802  0.00  0.00    +0.003 C 
ATOM     38  C   UNL     1       8.564  11.795  27.325  0.00  0.00    +0.004 C 
ENDBRANCH  36  37
BRANCH  36  39
ATOM     39  C   UNL     1       9.210   9.936  24.118  0.00  0.00    +0.003 C 
ATOM     40  C   UNL     1       7.711  10.008  23.865  0.00  0.00    +0.004 C 
ENDBRANCH  36  39
ENDBRANCH  35  36
ENDBRANCH  34  35
ENDBRANCH  33  34
ENDBRANCH  30  33
ENDBRANCH  28  30
ENDBRANCH  26  28
BRANCH  26  41
ATOM     41  O   UNL     1      10.696   5.532  26.809  0.00  0.00    -0.413 OA
BRANCH  41  42
ATOM     42  C   UNL     1       9.784   6.467  27.217  0.00  0.00    +0.131 A 
ATOM     43  C   UNL     1       9.929   7.087  28.458  0.00  0.00    +0.046 A 
ATOM     44  C   UNL     1       8.710   6.800  26.393  0.00  0.00    +0.046 A 
ATOM     45  C   UNL     1       8.999   8.041  28.875  0.00  0.00    +0.004 A 
ATOM     46  C   UNL     1       7.780   7.753  26.809  0.00  0.00    +0.004 A 
ATOM     47  C   UNL     1       7.925   8.374  28.049  0.00  0.00    +0.000 A 
ENDBRANCH  41  42
ENDBRANCH  26  41
ENDBRANCH  25  26
ENDBRANCH   1  25
TORSDOF 17
ENDMDL
MODEL 8
REMARK VINA RESULT:    -1.752      3.154      7.279
REMARK INTER + INTRA:          -7.261
REMARK INTER:                  -3.323
REMARK INTRA:                  -3.938
REMARK UNBOUND:                -3.869
REMARK  Name = Remdesivir.pdb
REMARK  20 active torsions:
REMARK  status: ('A' for Active; 'I' for Inactive)
REMARK    1  A    between atoms: P_1  and  O_5
REMARK    2  A    between atoms: P_1  and  O_6
REMARK    3  A    between atoms: P_1  and  N_12
REMARK    4  A    between atoms: O_3  and  C_17
REMARK    5  A    between atoms: O_4  and  C_18
REMARK    6  A    between atoms: O_5  and  C_21
REMARK    7  A    between atoms: O_6  and  C_35
REMARK    8  A    between atoms: O_8  and  C_30
REMARK    9  A    between atoms: O_8  and  C_33
REMARK   10  A    between atoms: N_12  and  C_27
REMARK   11  A    between atoms: C_16  and  C_20
REMARK   12  A    between atoms: C_16  and  C_22
REMARK   13  A    between atoms: C_19  and  C_21
REMARK   14  A    between atoms: C_27  and  C_33
REMARK   15  A    between atoms: C_27  and  C_34
REMARK   16  A    between atoms: C_29  and  C_30
REMARK   17  A    between atoms: C_29  and  C_31
REMARK   18  A    between atoms: C_29  and  C_32
REMARK   19  A    between atoms: C_31  and  C_36
REMARK   20  A    between atoms: C_32  and  C_37
REMARK                            x       y       z     vdW  Elec       q    Type
REMARK                         _______ _______ _______ _____ _____    ______ ____
ROOT
ATOM      1  C   UNL     1      12.515   4.483  19.605  0.00  0.00    +0.206 C 
ENDROOT
BRANCH   1   6
ATOM      2  O   UNL     1      13.304   5.969  21.319  0.00  0.00    -0.343 OA
ATOM      3  C   UNL     1      12.297   6.678  22.087  0.00  0.00    +0.225 C 
ATOM      4  C   UNL     1      11.098   5.708  22.129  0.00  0.00    +0.198 C 
ATOM      5  C   UNL     1      11.739   4.338  22.021  0.00  0.00    +0.178 C 
ATOM      6  C   UNL     1      12.896   4.607  21.075  0.00  0.00    +0.178 C 
BRANCH   3  11
ATOM      7  N   UNL     1      11.089   8.907  21.968  0.00  0.00    -0.219 N 
ATOM      8  N   UNL     1      10.438   8.779  23.149  0.00  0.00    -0.107 NA
ATOM      9  N   UNL     1       9.478  10.940  22.684  0.00  0.00    -0.341 NA
ATOM     10  N   UNL     1       9.926  12.201  20.771  0.00  0.00    -0.331 N 
ATOM     11  C   UNL     1      11.953   8.002  21.408  0.00  0.00    +0.093 A 
ATOM     12  C   UNL     1      12.390   8.522  20.209  0.00  0.00    +0.030 A 
ATOM     13  C   UNL     1      10.970   9.994  21.143  0.00  0.00    +0.119 A 
ATOM     14  C   UNL     1      11.768   9.784  20.040  0.00  0.00    +0.034 A 
ATOM     15  C   UNL     1      10.102  11.076  21.541  0.00  0.00    +0.205 C 
ATOM     16  C   UNL     1       9.674   9.796  23.436  0.00  0.00    +0.223 C 
ATOM     17  H   UNL     1      10.402  12.326  19.883  0.00  0.00    +0.145 HD
ATOM     18  H   UNL     1       9.311  12.949  21.074  0.00  0.00    +0.145 HD
ENDBRANCH   3  11
BRANCH   4  19
ATOM     19  O   UNL     1      10.281   5.841  23.275  0.00  0.00    -0.385 OA
ATOM     20  H   UNL     1       9.370   5.994  22.968  0.00  0.00    +0.210 HD
ENDBRANCH   4  19
BRANCH   5  21
ATOM     21  O   UNL     1      12.252   3.939  23.291  0.00  0.00    -0.386 OA
ATOM     22  H   UNL     1      12.086   4.667  23.913  0.00  0.00    +0.210 HD
ENDBRANCH   5  21
BRANCH   3  24
ATOM     23  N   UNL     1      13.314   7.142  24.476  0.00  0.00    -0.193 NA
ATOM     24  C   UNL     1      12.867   6.938  23.426  0.00  0.00    +0.107 C 
ENDBRANCH   3  24
ENDBRANCH   1   6
BRANCH   1  25
ATOM     25  O   UNL     1      13.663   4.119  18.858  0.00  0.00    -0.284 OA
BRANCH  25  26
ATOM     26  P   UNL     1      14.114   4.997  17.562  0.00  0.00    +0.462 P 
ATOM     27  O   UNL     1      14.585   4.092  16.452  0.00  0.00    -0.228 OA
BRANCH  26  28
ATOM     28  N   UNL     1      12.870   6.035  17.214  0.00  0.00    -0.199 NA
ATOM     29  H   UNL     1      12.288   6.361  17.983  0.00  0.00    +0.135 HD
BRANCH  28  30
ATOM     30  C   UNL     1      12.054   5.770  16.031  0.00  0.00    +0.171 C 
ATOM     31  C   UNL     1      11.128   4.591  16.298  0.00  0.00    +0.036 C 
BRANCH  30  33
ATOM     32  O   UNL     1      10.867   7.356  14.607  0.00  0.00    -0.249 OA
ATOM     33  C   UNL     1      11.252   7.020  15.719  0.00  0.00    +0.325 C 
BRANCH  33  34
ATOM     34  O   UNL     1      11.020   7.716  16.878  0.00  0.00    -0.463 OA
BRANCH  34  35
ATOM     35  C   UNL     1      10.001   8.705  16.816  0.00  0.00    +0.235 C 
BRANCH  35  36
ATOM     36  C   UNL     1       8.815   8.305  17.709  0.00  0.00    +0.026 C 
BRANCH  36  37
ATOM     37  C   UNL     1       9.208   7.258  18.776  0.00  0.00    +0.003 C 
ATOM     38  C   UNL     1       8.469   7.377  20.102  0.00  0.00    +0.004 C 
ENDBRANCH  36  37
BRANCH  36  39
ATOM     39  C   UNL     1       7.627   7.883  16.822  0.00  0.00    +0.003 C 
ATOM     40  C   UNL     1       7.637   6.410  16.439  0.00  0.00    +0.004 C 
ENDBRANCH  36  39
ENDBRANCH  35  36
ENDBRANCH  34  35
ENDBRANCH  33  34
ENDBRANCH  30  33
ENDBRANCH  28  30
ENDBRANCH  26  28
BRANCH  26  41
ATOM     41  O   UNL     1      15.322   5.878  18.192  0.00  0.00    -0.413 OA
BRANCH  41  42
ATOM     42  C   UNL     1      15.596   7.184  17.887  0.00  0.00    +0.131 A 
ATOM     43  C   UNL     1      15.704   8.130  18.905  0.00  0.00    +0.046 A 
ATOM     44  C   UNL     1      15.767   7.568  16.557  0.00  0.00    +0.046 A 
ATOM     45  C   UNL     1      15.983   9.461  18.595  0.00  0.00    +0.004 A 
ATOM     46  C   UNL     1      16.046   8.899  16.246  0.00  0.00    +0.004 A 
ATOM     47  C   UNL     1      16.155   9.846  17.264  0.00  0.00    +0.000 A 
ENDBRANCH  41  42
ENDBRANCH  26  41
ENDBRANCH  25  26
ENDBRANCH   1  25
TORSDOF 17
ENDMDL
MODEL 9
REMARK VINA RESULT:    -1.744      3.598      6.651
REMARK INTER + INTRA:          -7.245
REMARK INTER:                  -3.053
REMARK INTRA:                  -4.193
REMARK UNBOUND:                -3.869
REMARK  Name = Remdesivir.pdb
REMARK  20 active torsions:
REMARK  status: ('A' for Active; 'I' for Inactive)
REMARK    1  A    between atoms: P_1  and  O_5
REMARK    2  A    between atoms: P_1  and  O_6
REMARK    3  A    between atoms: P_1  and  N_12
REMARK    4  A    between atoms: O_3  and  C_17
REMARK    5  A    between atoms: O_4  and  C_18
REMARK    6  A    between atoms: O_5  and  C_21
REMARK    7  A    between atoms: O_6  and  C_35
REMARK    8  A    between atoms: O_8  and  C_30
REMARK    9  A    between atoms: O_8  and  C_33
REMARK   10  A    between atoms: N_12  and  C_27
REMARK   11  A    between atoms: C_16  and  C_20
REMARK   12  A    between atoms: C_16  and  C_22
REMARK   13  A    between atoms: C_19  and  C_21
REMARK   14  A    between atoms: C_27  and  C_33
REMARK   15  A    between atoms: C_27  and  C_34
REMARK   16  A    between atoms: C_29  and  C_30
REMARK   17  A    between atoms: C_29  and  C_31
REMARK   18  A    between atoms: C_29  and  C_32
REMARK   19  A    between atoms: C_31  and  C_36
REMARK   20  A    between atoms: C_32  and  C_37
REMARK                            x       y       z     vdW  Elec       q    Type
REMARK                         _______ _______ _______ _____ _____    ______ ____
ROOT
ATOM      1  C   UNL     1      10.264   4.652  21.017  0.00  0.00    +0.206 C 
ENDROOT
BRANCH   1   6
ATOM      2  O   UNL     1      11.865   4.119  19.308  0.00  0.00    -0.343 OA
ATOM      3  C   UNL     1      12.778   5.175  18.911  0.00  0.00    +0.225 C 
ATOM      4  C   UNL     1      12.979   6.006  20.195  0.00  0.00    +0.198 C 
ATOM      5  C   UNL     1      12.765   5.002  21.311  0.00  0.00    +0.178 C 
ATOM      6  C   UNL     1      11.666   4.125  20.737  0.00  0.00    +0.178 C 
BRANCH   3  11
ATOM      7  N   UNL     1      12.816   7.071  17.225  0.00  0.00    -0.219 N 
ATOM      8  N   UNL     1      14.030   7.555  17.582  0.00  0.00    -0.107 NA
ATOM      9  N   UNL     1      13.706   9.220  15.870  0.00  0.00    -0.341 NA
ATOM     10  N   UNL     1      11.815   9.363  14.507  0.00  0.00    -0.331 N 
ATOM     11  C   UNL     1      12.170   5.994  17.774  0.00  0.00    +0.093 A 
ATOM     12  C   UNL     1      10.966   5.846  17.121  0.00  0.00    +0.030 A 
ATOM     13  C   UNL     1      12.040   7.610  16.232  0.00  0.00    +0.119 A 
ATOM     14  C   UNL     1      10.882   6.869  16.144  0.00  0.00    +0.034 A 
ATOM     15  C   UNL     1      12.531   8.763  15.515  0.00  0.00    +0.205 C 
ATOM     16  C   UNL     1      14.401   8.595  16.889  0.00  0.00    +0.223 C 
ATOM     17  H   UNL     1      10.905   9.022  14.216  0.00  0.00    +0.145 HD
ATOM     18  H   UNL     1      12.183  10.172  14.018  0.00  0.00    +0.145 HD
ENDBRANCH   3  11
BRANCH   4  19
ATOM     19  O   UNL     1      14.231   6.657  20.277  0.00  0.00    -0.385 OA
ATOM     20  H   UNL     1      14.060   7.600  20.445  0.00  0.00    +0.210 HD
ENDBRANCH   4  19
BRANCH   5  21
ATOM     21  O   UNL     1      13.943   4.221  21.496  0.00  0.00    -0.386 OA
ATOM     22  H   UNL     1      13.790   3.360  21.071  0.00  0.00    +0.210 HD
ENDBRANCH   5  21
BRANCH   3  24
ATOM     23  N   UNL     1      15.003   4.024  18.085  0.00  0.00    -0.193 NA
ATOM     24  C   UNL     1      14.025   4.529  18.448  0.00  0.00    +0.107 C 
ENDBRANCH   3  24
ENDBRANCH   1   6
BRANCH   1  25
ATOM     25  O   UNL     1       9.399   4.245  19.972  0.00  0.00    -0.284 OA
BRANCH  25  26
ATOM     26  P   UNL     1       7.931   4.930  19.804  0.00  0.00    +0.462 P 
ATOM     27  O   UNL     1       7.195   4.926  21.121  0.00  0.00    -0.228 OA
BRANCH  26  28
ATOM     28  N   UNL     1       8.153   6.398  19.069  0.00  0.00    -0.199 NA
ATOM     29  H   UNL     1       8.742   6.434  18.238  0.00  0.00    +0.135 HD
BRANCH  28  30
ATOM     30  C   UNL     1       8.384   7.569  19.911  0.00  0.00    +0.171 C 
ATOM     31  C   UNL     1       9.796   8.094  19.688  0.00  0.00    +0.036 C 
BRANCH  30  33
ATOM     32  O   UNL     1       7.257   9.728  20.065  0.00  0.00    -0.249 OA
ATOM     33  C   UNL     1       7.356   8.625  19.544  0.00  0.00    +0.325 C 
BRANCH  33  34
ATOM     34  O   UNL     1       6.557   8.155  18.533  0.00  0.00    -0.463 OA
BRANCH  34  35
ATOM     35  C   UNL     1       6.502   8.956  17.361  0.00  0.00    +0.235 C 
BRANCH  35  36
ATOM     36  C   UNL     1       7.789   8.785  16.539  0.00  0.00    +0.026 C 
BRANCH  36  37
ATOM     37  C   UNL     1       8.410  10.140  16.128  0.00  0.00    +0.003 C 
ATOM     38  C   UNL     1       9.390  10.734  17.132  0.00  0.00    +0.004 C 
ENDBRANCH  36  37
BRANCH  36  39
ATOM     39  C   UNL     1       7.519   7.834  15.356  0.00  0.00    +0.003 C 
ATOM     40  C   UNL     1       7.760   8.464  13.992  0.00  0.00    +0.004 C 
ENDBRANCH  36  39
ENDBRANCH  35  36
ENDBRANCH  34  35
ENDBRANCH  33  34
ENDBRANCH  30  33
ENDBRANCH  28  30
ENDBRANCH  26  28
BRANCH  26  41
ATOM     41  O   UNL     1       7.249   3.938  18.717  0.00  0.00    -0.413 OA
BRANCH  41  42
ATOM     42  C   UNL     1       6.461   4.329  17.668  0.00  0.00    +0.131 A 
ATOM     43  C   UNL     1       6.914   4.169  16.358  0.00  0.00    +0.046 A 
ATOM     44  C   UNL     1       5.207   4.888  17.909  0.00  0.00    +0.046 A 
ATOM     45  C   UNL     1       6.111   4.568  15.289  0.00  0.00    +0.004 A 
ATOM     46  C   UNL     1       4.404   5.287  16.840  0.00  0.00    +0.004 A 
ATOM     47  C   UNL     1       4.855   5.127  15.530  0.00  0.00    +0.000 A 
ENDBRANCH  41  42
ENDBRANCH  26  41
ENDBRANCH  25  26
ENDBRANCH   1  25
TORSDOF 17
ENDMDL
