REMARK  Name = remdesivir_clean.pdb
REMARK  20 active torsions:
REMARK  status: ('A' for Active; 'I' for Inactive)
REMARK    1  A    between atoms: P_1  and  O_5
REMARK    2  A    between atoms: P_1  and  O_6
REMARK    3  A    between atoms: P_1  and  N_12
REMARK    4  A    between atoms: O_3  and  C_17
REMARK    5  A    between atoms: O_4  and  C_18
REMARK    6  A    between atoms: O_5  and  C_21
REMARK    7  A    between atoms: O_6  and  C_35
REMARK    8  A    between atoms: O_8  and  C_30
REMARK    9  A    between atoms: O_8  and  C_33
REMARK   10  A    between atoms: N_12  and  C_27
REMARK   11  A    between atoms: C_16  and  C_20
REMARK   12  A    between atoms: C_16  and  C_22
REMARK   13  A    between atoms: C_19  and  C_21
REMARK   14  A    between atoms: C_27  and  C_33
REMARK   15  A    between atoms: C_27  and  C_34
REMARK   16  A    between atoms: C_29  and  C_30
REMARK   17  A    between atoms: C_29  and  C_31
REMARK   18  A    between atoms: C_29  and  C_32
REMARK   19  A    between atoms: C_31  and  C_36
REMARK   20  A    between atoms: C_32  and  C_37
REMARK                            x       y       z     vdW  Elec       q    Type
REMARK                         _______ _______ _______ _____ _____    ______ ____
ROOT
ATOM      1  C   UNL     1      -0.655   2.155   0.194  0.00  0.00    +0.000 C 
ENDROOT
BRANCH   1   6
ATOM      2  O   UNL     1      -2.838   2.015  -0.798  0.00  0.00    +0.000 OA
ATOM      3  C   UNL     1      -3.960   1.843   0.106  0.00  0.00    +0.000 C 
ATOM      4  C   UNL     1      -3.530   2.582   1.390  0.00  0.00    +0.000 C 
ATOM      5  C   UNL     1      -2.585   3.657   0.888  0.00  0.00    +0.000 C 
ATOM      6  C   UNL     1      -1.879   2.945  -0.253  0.00  0.00    +0.000 C 
BRANCH   3  11
ATOM      7  N   UNL     1      -3.901  -0.599  -0.583  0.00  0.00    +0.000 N 
ATOM      8  N   UNL     1      -3.340  -0.391  -1.798  0.00  0.00    +0.000 NA
ATOM      9  N   UNL     1      -3.452  -2.780  -2.095  0.00  0.00    +0.000 NA
ATOM     10  N   UNL     1      -4.308  -4.269  -0.513  0.00  0.00    +0.000 N 
ATOM     11  C   UNL     1      -4.218   0.357   0.347  0.00  0.00    +0.000 A 
ATOM     12  C   UNL     1      -4.768  -0.281   1.438  0.00  0.00    +0.000 A 
ATOM     13  C   UNL     1      -4.242  -1.835  -0.100  0.00  0.00    +0.000 A 
ATOM     14  C   UNL     1      -4.784  -1.670   1.156  0.00  0.00    +0.000 A 
ATOM     15  C   UNL     1      -3.995  -2.995  -0.923  0.00  0.00    +0.000 C 
ATOM     16  C   UNL     1      -3.150  -1.486  -2.479  0.00  0.00    +0.000 C 
ATOM     17  H   UNL     1      -4.727  -4.456   0.392  0.00  0.00    +0.000 HD
ATOM     18  H   UNL     1      -4.123  -5.068  -1.110  0.00  0.00    +0.000 HD
ENDBRANCH   3  11
BRANCH   4  19
ATOM     19  O   UNL     1      -4.603   3.107   2.147  0.00  0.00    +0.000 OA
ATOM     20  H   UNL     1      -4.220   3.626   2.876  0.00  0.00    +0.000 HD
ENDBRANCH   4  19
BRANCH   5  21
ATOM     21  O   UNL     1      -3.330   4.756   0.368  0.00  0.00    +0.000 OA
ATOM     22  H   UNL     1      -2.692   5.395   0.008  0.00  0.00    +0.000 HD
ENDBRANCH   5  21
BRANCH   3  24
ATOM     23  N   UNL     1      -6.069   2.937  -1.040  0.00  0.00    +0.000 NA
ATOM     24  C   UNL     1      -5.142   2.456  -0.536  0.00  0.00    +0.000 C 
ENDBRANCH   3  24
ENDBRANCH   1   6
BRANCH   1  25
ATOM     25  O   UNL     1      -0.076   1.522  -0.934  0.00  0.00    +0.000 OA
BRANCH  25  26
ATOM     26  P   UNL     1       0.719   0.110  -0.767  0.00  0.00    +0.000 P 
ATOM     27  O   UNL     1       1.057  -0.466  -2.119  0.00  0.00    +0.000 OA
BRANCH  26  28
ATOM     28  N   UNL     1       1.978   0.374   0.277  0.00  0.00    +0.000 NA
ATOM     29  H   UNL     1       1.771   0.795   1.181  0.00  0.00    +0.000 HD
BRANCH  28  30
ATOM     30  C   UNL     1       3.228   0.906  -0.262  0.00  0.00    +0.000 C 
ATOM     31  C   UNL     1       3.212   2.427  -0.193  0.00  0.00    +0.000 C 
BRANCH  30  33
ATOM     32  O   UNL     1       4.256  -0.390   1.531  0.00  0.00    +0.000 OA
ATOM     33  C   UNL     1       4.374   0.345   0.560  0.00  0.00    +0.000 C 
BRANCH  33  34
ATOM     34  O   UNL     1       5.567   0.785   0.044  0.00  0.00    +0.000 OA
BRANCH  34  35
ATOM     35  C   UNL     1       6.737   0.334   0.712  0.00  0.00    +0.000 C 
BRANCH  35  36
ATOM     36  C   UNL     1       7.992   0.903   0.030  0.00  0.00    +0.000 C 
BRANCH  36  37
ATOM     37  C   UNL     1       8.020   0.613  -1.488  0.00  0.00    +0.000 C 
ATOM     38  C   UNL     1       8.092  -0.861  -1.864  0.00  0.00    +0.000 C 
ENDBRANCH  36  37
BRANCH  36  39
ATOM     39  C   UNL     1       9.247   0.422   0.785  0.00  0.00    +0.000 C 
ATOM     40  C   UNL     1      10.547   1.007   0.253  0.00  0.00    +0.000 C 
ENDBRANCH  36  39
ENDBRANCH  35  36
ENDBRANCH  34  35
ENDBRANCH  33  34
ENDBRANCH  30  33
ENDBRANCH  28  30
ENDBRANCH  26  28
BRANCH  26  41
ATOM     41  O   UNL     1      -0.389  -0.777   0.019  0.00  0.00    +0.000 OA
BRANCH  41  42
ATOM     42  C   UNL     1      -0.181  -2.023   0.546  0.00  0.00    +0.000 A 
ATOM     43  C   UNL     1       0.745  -2.884  -0.043  0.00  0.00    +0.000 A 
ATOM     44  C   UNL     1      -0.895  -2.432   1.672  0.00  0.00    +0.000 A 
ATOM     45  C   UNL     1       0.957  -4.154   0.494  0.00  0.00    +0.000 A 
ATOM     46  C   UNL     1      -0.683  -3.702   2.209  0.00  0.00    +0.000 A 
ATOM     47  C   UNL     1       0.243  -4.563   1.621  0.00  0.00    +0.000 A 
ENDBRANCH  41  42
ENDBRANCH  26  41
ENDBRANCH  25  26
ENDBRANCH   1  25
TORSDOF 17
