REMARK  17 active torsions:
REMARK  status: ('A' for Active; 'I' for Inactive)
REMARK    1  A    between atoms: P_1  and  O_5 
REMARK    2  A    between atoms: P_1  and  O_6 
REMARK    3  A    between atoms: P_1  and  N_13 
REMARK    4  A    between atoms: O_3  and  C_19 
REMARK    5  A    between atoms: O_4  and  C_20 
REMARK    6  A    between atoms: O_5  and  C_23 
REMARK    7  A    between atoms: O_6  and  C_37 
REMARK    8  A    between atoms: O_8  and  C_32 
REMARK    9  A    between atoms: O_8  and  C_35 
REMARK   10  A    between atoms: N_13  and  C_29 
REMARK   11  A    between atoms: N_17  and  C_28 
REMARK   12  A    between atoms: C_18  and  C_22 
REMARK   13  A    between atoms: C_21  and  C_23 
REMARK   14  A    between atoms: C_29  and  C_35 
REMARK   15  A    between atoms: C_31  and  C_32 
REMARK   16  A    between atoms: C_31  and  C_33 
REMARK   17  A    between atoms: C_31  and  C_34 
ROOT
HETATM    1  O   UNL     1      -2.838   2.015  -0.798  1.00  0.00    -0.347 OA
HETATM    2  N   UNL     1      -6.069   2.937  -1.040  1.00  0.00    -0.193 NA
HETATM    3  C   UNL     1      -3.960   1.843   0.106  1.00  0.00     0.222 C 
HETATM    4  C   UNL     1      -3.530   2.582   1.390  1.00  0.00     0.205 C 
HETATM    5  C   UNL     1      -2.585   3.657   0.888  1.00  0.00     0.182 C 
HETATM    6  C   UNL     1      -1.879   2.945  -0.253  1.00  0.00     0.180 C 
HETATM    7  C   UNL     1      -5.142   2.456  -0.536  1.00  0.00     0.107 C 
ENDROOT
BRANCH   3   8
HETATM    8  C   UNL     1      -4.218   0.357   0.347  1.00  0.00     0.086 A 
HETATM    9  N   UNL     1      -3.901  -0.599  -0.583  1.00  0.00    -0.252 N 
HETATM   10  N   UNL     1      -3.340  -0.391  -1.798  1.00  0.00    -0.289 N 
HETATM   11  C   UNL     1      -4.242  -1.835  -0.100  1.00  0.00     0.100 A 
HETATM   12  C   UNL     1      -3.150  -1.486  -2.479  1.00  0.00     0.199 A 
ATOM     13  HN  UNL     1      -3.090   0.534  -2.147  1.00  0.00     0.188 HD
HETATM   14  N   UNL     1      -3.452  -2.780  -2.095  1.00  0.00    -0.336 N 
HETATM   15  C   UNL     1      -3.995  -2.995  -0.923  1.00  0.00     0.129 A 
ATOM     16  HN  UNL     1      -3.253  -3.561  -2.720  1.00  0.00     0.168 HD
HETATM   17  C   UNL     1      -4.784  -1.670   1.156  1.00  0.00     0.038 A 
HETATM   18  C   UNL     1      -4.768  -0.281   1.438  1.00  0.00     0.034 A 
BRANCH  15  19
HETATM   19  N   UNL     1      -4.308  -4.269  -0.513  1.00  0.00    -0.384 N 
HETATM   20  H   UNL     1      -4.727  -4.456   0.392  1.00  0.00     0.157 HD
HETATM   21  H   UNL     1      -4.123  -5.068  -1.110  1.00  0.00     0.157 HD
ENDBRANCH  15  19
ENDBRANCH   3   8
BRANCH   4  22
HETATM   22  O   UNL     1      -4.603   3.107   2.147  1.00  0.00    -0.388 OA
HETATM   23  H   UNL     1      -4.220   3.626   2.876  1.00  0.00     0.210 HD
ENDBRANCH   4  22
BRANCH   6  24
HETATM   24  C   UNL     1      -0.655   2.155   0.194  1.00  0.00     0.214 C 
BRANCH  24  25
HETATM   25  O   UNL     1      -0.076   1.522  -0.934  1.00  0.00    -0.295 OA
BRANCH  25  26
HETATM   26  P   UNL     1       0.719   0.110  -0.767  1.00  0.00     0.436 P 
HETATM   27  O   UNL     1       1.057  -0.466  -2.119  1.00  0.00    -0.234 OA
BRANCH  26  28
HETATM   28  O   UNL     1      -0.389  -0.777   0.019  1.00  0.00    -0.256 OA
BRANCH  28  29
HETATM   29  C   UNL     1      -0.181  -2.023   0.546  1.00  0.00     0.080 A 
HETATM   30  C   UNL     1       0.745  -2.884  -0.043  1.00  0.00     0.037 A 
HETATM   31  C   UNL     1       0.957  -4.154   0.494  1.00  0.00     0.003 A 
HETATM   32  C   UNL     1       0.243  -4.563   1.621  1.00  0.00     0.000 A 
HETATM   33  C   UNL     1      -0.683  -3.702   2.209  1.00  0.00     0.003 A 
HETATM   34  C   UNL     1      -0.895  -2.432   1.672  1.00  0.00     0.037 A 
ENDBRANCH  28  29
ENDBRANCH  26  28
BRANCH  26  35
HETATM   35  N   UNL     1       1.978   0.374   0.277  1.00  0.00    -0.314 N 
HETATM   36  H   UNL     1       1.771   0.795   1.181  1.00  0.00     0.166 HD
BRANCH  35  37
HETATM   37  C   UNL     1       3.228   0.906  -0.262  1.00  0.00     0.183 C 
HETATM   38  C   UNL     1       3.212   2.427  -0.193  1.00  0.00     0.043 C 
BRANCH  37  39
HETATM   39  C   UNL     1       4.374   0.345   0.560  1.00  0.00     0.281 C 
HETATM   40  O   UNL     1       4.256  -0.390   1.531  1.00  0.00    -0.263 OA
BRANCH  39  41
HETATM   41  O   UNL     1       5.567   0.785   0.044  1.00  0.00    -0.319 OA
BRANCH  41  42
HETATM   42  C   UNL     1       6.737   0.334   0.712  1.00  0.00     0.183 C 
BRANCH  42  43
HETATM   43  C   UNL     1       7.992   0.903   0.030  1.00  0.00     0.009 C 
BRANCH  43  44
HETATM   44  C   UNL     1       8.020   0.613  -1.488  1.00  0.00     0.002 C 
HETATM   45  C   UNL     1       8.092  -0.861  -1.864  1.00  0.00     0.005 C 
ENDBRANCH  43  44
BRANCH  43  46
HETATM   46  C   UNL     1       9.247   0.422   0.785  1.00  0.00     0.002 C 
HETATM   47  C   UNL     1      10.547   1.007   0.253  1.00  0.00     0.005 C 
ENDBRANCH  43  46
ENDBRANCH  42  43
ENDBRANCH  41  42
ENDBRANCH  39  41
ENDBRANCH  37  39
ENDBRANCH  35  37
ENDBRANCH  26  35
ENDBRANCH  25  26
ENDBRANCH  24  25
ENDBRANCH   6  24
BRANCH   5  48
HETATM   48  O   UNL     1      -3.330   4.756   0.368  1.00  0.00    -0.390 OA
HETATM   49  H   UNL     1      -2.692   5.395   0.008  1.00  0.00     0.210 HD
ENDBRANCH   5  48
TORSDOF 17
